%chk=C:\Users\Danny\Documents\Gaussian\project\gjf\cat\cat1_nocp_isolated.chk
# hf/3-21g geom=connectivity

Title Card Required

0 1
 N                 -0.07196828   -2.28821060    1.87988674
 H                  0.61347083   -2.90557171    2.26594178
 H                  0.29688656   -1.85200485    1.05911232
 C                 -0.41618004   -1.25757041    2.86993676
 H                 -0.81087199   -1.72431025    3.74815780
 H                  0.46136911   -0.70122471    3.12544989
 C                 -1.47173597   -0.30681799    2.27540206
 H                 -1.78433035    0.39156826    3.02336022
 O                 -2.59943937   -1.06511526    1.83023886
 H                 -3.34322796   -0.47647169    1.68232917
 C                 -0.86293941    0.45540786    1.08377355
 C                  0.46010749    0.22087992    0.70825394
 C                 -1.63421131    1.38014750    0.37982441
 C                  1.01188270    0.91147530   -0.37056202
 H                  1.06813570   -0.50766699    1.26391830
 C                 -1.08272053    2.07031543   -0.69996077
 H                 -2.67705027    1.56498422    0.67554608
 C                  0.24014724    1.83624282   -1.07515124
 H                  2.05490789    0.72713047   -0.66621713
 H                 -1.69119986    2.79907250   -1.25506460
 H                  0.67540078    2.38058958   -1.92576120

 1 2 1.0 3 1.0 4 1.0
 2
 3
 4 5 1.0 6 1.0 7 1.0
 5
 6
 7 8 1.0 9 1.0 11 1.0
 8
 9 10 1.0
 10
 11 12 1.5 13 1.5
 12 14 1.5 15 1.0
 13 16 1.5 17 1.0
 14 18 1.5 19 1.0
 15
 16 18 1.5 20 1.0
 17
 18 21 1.0
 19
 20
 21

