%chk=C:\Users\Danny\Documents\Gaussian\project\gjf\cat\cat4_nme_isolated.chk
# hf/3-21g geom=connectivity

Title Card Required

0 1
 N                  0.72997773   -1.03096596    3.09379386
 H                  0.88101599   -0.96206512    2.10767008
 C                 -0.48408300   -0.28586013    3.45680054
 H                 -1.19111500   -0.95245850    3.90474291
 C                 -1.09939981    0.34063880    2.19169805
 H                 -2.02718432    0.81130973    2.44186755
 O                 -1.33041876   -0.68082540    1.21797267
 H                 -1.91923019   -0.34721431    0.53708741
 C                 -0.13061064    1.38976166    1.61516637
 C                  1.07313309    1.64198248    2.22537316
 C                 -0.49921528    2.09338318    0.44267294
 C                  1.96469910    2.61160746    1.68953926
 C                  0.34289747    3.03462742   -0.09552108
 H                 -1.46887171    1.87392493   -0.02798870
 C                  3.21750478    2.89318312    2.30052946
 C                  1.59589027    3.31691001    0.51492707
 C                  4.05941781    3.83459098    1.76246230
 H                  3.49542111    2.34147192    3.21108313
 C                  2.48710605    4.28642838   -0.02084790
 C                  3.69090777    4.53835484    0.59026388
 H                  5.02899661    4.05425568    2.23326416
 H                  2.19166414    4.82797510   -0.93183649
 H                  4.38277250    5.28777161    0.17844537
 C                  1.48665643    0.88381352    3.50043327
 H                  0.61067758    0.57242587    4.03014902
 H                  2.06573166    0.02482647    3.23264019
 H                  2.07087813    1.52740875    4.12442861
 C                 -0.04653104    3.80648015   -1.36995774
 H                 -0.06624808    4.85542085   -1.15963741
 H                  0.67108930    3.61034337   -2.13901652
 H                 -1.01501122    3.48996327   -1.69670414
 C                  1.88398227   -0.46482497    3.80699642
 H                  2.56810926   -0.04322790    3.10050779
 H                  1.54913354    0.29818587    4.47825702
 H                  2.37469338   -1.23734406    4.36135808
 H                 -0.23322935    0.48779927    4.15208723

 1 2 1.0 3 1.0 32 1.0
 2
 3 4 1.0 5 1.0 36 1.0
 4
 5 6 1.0 7 1.0 9 1.0
 6
 7 8 1.0
 8
 9 10 1.5 11 1.5
 10 12 1.5 24 1.0
 11 13 1.5 14 1.0
 12 15 1.5 16 1.5
 13 16 1.5 28 1.0
 14
 15 17 1.5 18 1.0
 16 19 1.5
 17 20 1.5 21 1.0
 18
 19 20 1.5 22 1.0
 20 23 1.0
 21
 22
 23
 24 25 1.0 26 1.0 27 1.0
 25
 26
 27
 28 29 1.0 30 1.0 31 1.0
 29
 30
 31
 32 33 1.0 34 1.0 35 1.0
 33
 34
 35
 36

