%chk=C:\Users\Danny\Documents\Gaussian\project\gjf\complex\oac_cat4_nocp_complex.chk
# hf/3-21g geom=connectivity

Title Card Required

0 1
 C                 -0.07839435   -0.15654665   -1.27630325
 C                 -0.74214274    0.10881824   -2.52154724
 C                 -1.91276056   -0.75443248   -2.73579671
 C                 -1.97326709   -1.64591887   -1.48603025
 C                 -0.83195857   -1.21523561   -0.66545362
 H                 -0.42701715    0.86795097   -3.24804108
 H                 -2.83851505   -0.15386632   -2.87615945
 H                 -1.81555004   -1.34287093   -3.67477530
 H                 -2.93254932   -1.53991369   -0.93289880
 H                 -1.90971773   -2.72900168   -1.73156582
 H                 -0.59896397   -1.66762942    0.30636786
 O                  0.92986737    0.40782962   -0.82497388
 N                  0.84118234    0.56198591    1.04076621
 H                  0.10595769    0.26562784    0.44416329
 H                  1.08124845    1.49611885    0.81372214
 C                  2.00926933   -0.31342155    0.87621110
 H                  2.81088753    0.03861547    1.56328944
 H                  1.74246969   -1.34163279    1.21655712
 O                  3.01694756    0.85725274   -0.93362043
 H                  2.34103955    1.45555399   -0.63278194
 C                  1.50647663   -1.00564806   -1.47869510
 C                  0.70394140   -2.04392492   -1.05241989
 C                  1.33446999   -0.45762400   -2.77349237
 C                 -0.31493452   -2.55297922   -1.91576073
 C                  0.38303108   -0.95434398   -3.62839748
 H                  1.97086983    0.38417298   -3.10405518
 C                 -1.19375771   -3.58974663   -1.49452043
 C                 -0.46703069   -2.01905254   -3.21089506
 C                 -2.15488195   -4.07608014   -2.34048309
 H                 -1.12554260   -4.01368805   -0.47913050
 C                 -1.46859507   -2.54448883   -4.07204275
 C                 -2.29049304   -3.55322992   -3.64527477
 H                 -2.83236838   -4.87758376   -2.01043210
 H                 -1.59566409   -2.14513984   -5.09216252
 H                 -3.06506502   -3.96160213   -4.31111292
 C                  0.87047237   -2.65544894    0.29554979
 H                  1.73931167   -2.26327531    0.85371339
 H                 -0.01551037   -2.47924621    0.92014929
 H                  1.01362154   -3.74297584    0.23198952
 C                  0.23832138   -0.36878151   -4.98794888
 H                  0.39408674   -1.12758562   -5.76676273
 H                 -0.76981159    0.03973971   -5.14101884
 H                  0.94694712    0.44611347   -5.18951845
 C                  2.56611100   -0.42347000   -0.56392200
 H                  3.44004228   -1.02970740   -0.68062816

 1 2 1.5 5 1.5 12 1.0
 2 3 1.0 6 1.0
 3 4 1.0 7 1.0 8 1.0
 4 5 1.0 9 1.0 10 1.0
 5 11 1.0
 6
 7
 8
 9
 10
 11
 12
 13 14 1.0 15 1.0 16 1.0
 14
 15
 16 17 1.0 18 1.0 44 1.0
 17
 18
 19 20 1.0 44 1.0
 20
 21 22 2.0 23 1.5 44 1.0
 22 24 1.5 36 1.0
 23 25 2.0 26 1.0
 24 27 1.5 28 1.5
 25 28 1.5 40 1.0
 26
 27 29 2.0 30 1.0
 28 31 1.5
 29 32 1.5 33 1.0
 30
 31 32 2.0 34 1.0
 32 35 1.0
 33
 34
 35
 36 37 1.0 38 1.0 39 1.0
 37
 38
 39
 40 41 1.0 42 1.0 43 1.0
 41
 42
 43
 44 45 1.0
 45

