%nprocshared=4
%mem=3GB
#p opt freq=noraman pddg

diMe cat

0 1
 N                 -0.83165110   -0.74798600   -1.22062215
 H                 -0.03593061   -0.30710226   -1.61853046
 C                 -1.16158016   -0.19869752    0.12163419
 H                 -2.27297762   -0.18503279    0.17771422
 C                 -0.62807500    1.22286700    0.38928300
 H                 -0.42441700    1.88707400    1.28984700
 O                 -0.91053500    1.98990200   -0.75875800
 H                 -0.14608232    1.90458539   -1.31939936
 C                  0.84278469    1.29386973    0.75531333
 C                  1.72893909    0.22951757    0.62139495
 C                  1.30366340    2.51110318    1.26929624
 C                  3.06431183    0.38359181    0.98994135
 H                  1.40508399   -0.75031449    0.23290952
 C                  2.63586630    2.66217225    1.63252203
 H                  0.60837225    3.35743037    1.39704222
 C                  3.52115845    1.59632436    1.49156045
 H                  3.75956955   -0.46156534    0.88026617
 H                  2.99020907    3.62299444    2.03321019
 H                  4.57613997    1.71424331    1.77803177
 C                 -0.61834321   -2.20778195   -1.19320344
 H                 -1.53372223   -2.72380821   -0.87118263
 H                 -0.38310874   -2.56952515   -2.20268331
 H                  0.19005058   -2.54034100   -0.51914794
 H                 -0.82901132   -0.85957494    0.96177496
 C                  2.23637718    0.96189228   -1.32533644
 C                  3.10151928   -0.18018576   -1.41914448
 C                  4.52581006    0.18376859   -1.39955645
 C                  4.53482864    1.71548072   -1.28080513
 C                  3.11490361    2.09467874   -1.24284536
 H                  2.75826161   -1.21912590   -1.49761418
 H                  5.05893659   -0.31207118   -0.55853218
 H                  5.04829685   -0.17595990   -2.31333621
 H                  5.07286467    2.06950909   -0.37383489
 H                  5.06238999    2.20563162   -2.12864105
 H                  2.78386290    3.13724292   -1.16004675
 O                  0.99593313    0.96851521   -1.31726273

