%chk=C:\Users\Danny\Documents\Gaussian\project\gjf\complex\oac_cat1_nocp_complex.chk
# hf/3-21g geom=connectivity

Title Card Required

0 2
 C                 -8.18069263   -3.33149514    0.74211537
 C                 -9.08687964   -3.50599523    1.84210985
 C                -10.06451872   -4.57860751    1.60721535
 C                 -9.72024496   -5.12062479    0.21150117
 C                 -8.57560845   -4.31093436   -0.23079723
 H                 -9.06921908   -2.91462751    2.76588053
 H                -10.00401773   -5.36136589    2.39527102
 H                -11.10745584   -4.19701310    1.67092058
 H                 -9.46861732   -6.20409646    0.22515967
 H                -10.57217711   -5.03985577   -0.49919047
 H                 -8.09014153   -4.45603612   -1.20375714
 O                 -7.25507228   -2.51060329    0.65170510
 N                 -5.22741091   -1.39160014    1.41620262
 H                 -4.93432896   -0.95179317    2.25309157
 H                 -6.21441559   -1.49039178    1.42969758
 C                 -4.55164373   -2.70504867    1.29947491
 H                 -3.55917707   -2.49317694    0.84360658
 H                 -4.32571156   -3.18330219    2.28437150
 C                 -5.29957432   -3.73118138    0.42517008
 O                 -5.76051132   -3.04177638   -0.71501292
 H                 -6.70953922   -3.11619981   -0.69171105
 C                 -6.43396950   -4.45720086    1.12494644
 C                 -6.95220527   -4.08493111    2.36157609
 C                 -6.95981755   -5.57587603    0.46861803
 C                 -7.99221741   -4.81767927    2.93130413
 H                 -6.56030366   -3.22193678    2.92257571
 C                 -7.99803352   -6.30222939    1.03806201
 H                 -6.54677727   -5.89388665   -0.50371573
 C                 -8.51880864   -5.92221340    2.27265610
 H                 -8.39804186   -4.51655573    3.90864308
 H                 -8.40676021   -7.17884579    0.51399747
 H                 -9.34131737   -6.49575707    2.72467728

 1 2 1.5 5 1.5 12 1.0
 2 3 1.0 6 1.0
 3 4 1.0 7 1.0 8 1.0
 4 5 1.0 9 1.0 10 1.0
 5 11 1.0
 6
 7
 8
 9
 10
 11
 12
 13 14 1.0 15 1.0 16 1.0
 14
 15
 16 17 1.0 18 1.0 19 1.0
 17
 18
 19 20 1.0 22 1.0
 20 21 1.0
 21
 22 23 1.5 24 1.5
 23 25 1.5 26 1.0
 24 27 1.5 28 1.0
 25 29 1.5 30 1.0
 26
 27 29 1.5 31 1.0
 28
 29 32 1.0
 30
 31
 32

