%nprocshared=4
%mem=3GB
#p opt freq=noraman pddg

diMe cat

0 1
 N                 -2.12215313   -1.04734569   -1.09556900
 H                 -1.42632144   -0.61539843   -1.65780002
 C                 -2.50511262   -0.21718219    0.07956671
 H                 -3.62890820   -0.15624422   -0.00162263
 C                 -1.96842700    1.24110000    0.03439000
 H                 -2.50853253    1.78466748    0.87941078
 O                 -2.34948800    1.75981700   -1.22293700
 H                 -1.59849643    2.25709166   -1.53152708
 C                 -0.48417570    1.46235431    0.26576881
 C                  0.49063916    0.50823438    0.13846328
 C                 -0.12413742    2.79442173    0.62125194
 C                  1.85319480    0.84584285    0.36841930
 H                  0.26482080   -0.53931499   -0.12861058
 C                  1.18045667    3.13846415    0.84345807
 H                 -0.91369773    3.55842123    0.72106122
 C                  2.87096449   -0.13697833    0.24330663
 C                  2.20136470    2.15882642    0.71989252
 H                  1.45424692    4.16961708    1.11894952
 C                  4.17962799    0.20326034    0.46613013
 H                  2.59579138   -1.16709199   -0.03458589
 C                  3.56224757    2.49151296    0.94710843
 C                  4.52856969    1.52796176    0.82117268
 H                  4.97420545   -0.55097140    0.37063265
 H                  3.82516281    3.52529877    1.22255341
 H                  5.58626825    1.77405578    0.99419347
 C                 -1.71914637   -2.43480123   -0.81093026
 H                 -1.51291498   -2.95352029   -1.75683564
 H                 -0.82671251   -2.54160758   -0.17034045
 H                 -2.53429969   -2.98360300   -0.31742208
 C                 -2.18639874   -0.81748125    1.44773964
 H                 -2.49916807   -0.14028013    2.25338202
 H                 -2.71994388   -1.76179808    1.61887772
 H                 -1.11919487   -1.02176612    1.60892647
 C                  0.93316215    1.53711253   -2.29655780
 C                  1.68389600    2.76014527   -2.34349013
 C                  3.13311912    2.53295272   -2.44140118
 C                  3.28764721    1.00447974   -2.45611995
 C                  1.91339228    0.49009559   -2.36528207
 H                  1.24422495    3.76464706   -2.31115649
 H                  3.55775520    3.01304178   -3.35057745
 H                  3.67562691    3.00804600   -1.59442884
 H                  3.79792547    0.63648463   -3.37351277
 H                  3.91596231    0.63149356   -1.61737323
 H                  1.68368415   -0.58250080   -2.35284050
 O                 -0.29824411    1.41188055   -2.21430166

