%chk=C:\Users\Danny\Documents\Gaussian\project\cat4_isolated.chk
# hf/3-21g geom=connectivity

Title Card Required

0 1
 C                 -3.08300452   -1.63867234    3.56225575
 C                 -4.60374352   -1.61517734    3.54720675
 C                 -5.19846752   -3.02421234    3.53058575
 H                 -2.72039952   -2.08195834    4.52654575
 H                 -2.69648952   -0.58731934    3.50943775
 H                 -4.92339652   -1.10607734    2.59189775
 H                 -6.30452352   -2.91794034    3.33209775
 C                 -5.16038552   -0.80742834    4.71002375
 H                 -4.63049152    0.17958366    4.76150975
 H                 -6.24537052   -0.59786234    4.51269075
 C                 -5.02993252   -1.51744434    6.04108975
 H                 -3.94648252   -1.59899834    6.32040675
 H                 -5.53546752   -0.90995534    6.83671475
 C                 -5.04336552   -3.72418834    4.87200175
 H                 -3.95665752   -3.90632634    5.08080475
 H                 -5.54942052   -4.72390434    4.82803875
 C                 -5.64340952   -2.90080434    5.99226375
 H                 -5.47680852   -3.42142234    6.97099175
 H                 -6.75166652   -2.81370034    5.84174675
 C                 -2.94978185   -2.72141552    2.39918175
 H                 -2.77095293   -2.01095251    1.61933399
 N                 -4.18908918   -3.56647016    2.39918175
 H                 -4.42535337   -4.49956293    2.67032217
 C                 -1.61805261   -3.37373009    2.81461276
 O                 -1.18220479   -4.26507382    1.78483460
 H                 -0.23126656   -4.38259568    1.84403830
 C                 -0.55580924   -2.27974990    3.03012697
 C                  0.45675963   -2.45598012    3.94040924
 C                 -0.63754785   -1.08514352    2.27386786
 C                  1.43554922   -1.44314977    4.13617991
 C                  0.29438240   -0.09137806    2.44323030
 H                 -1.45804796   -0.96712175    1.55084065
 C                  2.49496818   -1.59869440    5.07188994
 C                  1.35410347   -0.24606883    3.37884955
 C                  3.42667087   -0.60482238    5.24139243
 H                  2.55045390   -2.53025572    5.65485268
 C                  2.33254098    0.76667534    3.57454198
 C                  3.34494907    0.58976551    4.48547333
 H                  4.24705772   -0.72271802    5.96461856
 H                  2.26035225    1.69120249    2.98251384
 H                  4.10357245    1.37123558    4.63939492
 C                 -1.81794189   -4.16011598    4.12352128
 C                 -1.94028257   -5.52750314    4.10765494
 C                 -1.87388780   -3.45138363    5.34837309
 C                 -2.12470785   -6.24965377    5.31871493
 C                 -2.05111290   -4.12403660    6.53195944
 H                 -1.77356047   -2.35608198    5.33546475
 C                 -2.25431144   -7.66568416    5.33201161
 C                 -2.18092376   -5.54011194    6.54614135
 C                 -2.43179736   -8.33822426    6.51555339
 H                 -2.20947117   -8.20783012    4.37556098
 C                 -2.36541184   -6.26195301    7.75700710
 C                 -2.48797894   -7.62971069    7.74029195
 H                 -2.53238590   -9.43353485    6.52846272
 H                 -2.40782810   -5.70240952    8.70335319
 H                 -2.63082760   -8.19129978    8.67522975
 C                 -1.88075797   -6.31065014    2.78298985
 H                 -2.48784553   -5.82011695    2.05105962
 H                 -0.86877537   -6.35124516    2.43781850
 H                 -2.24429503   -7.30472274    2.93970767
 C                 -2.11375564   -3.36478304    7.87032035
 H                 -3.03775340   -3.58548704    8.36267986
 H                 -1.29718733   -3.66875092    8.49138373
 H                 -2.04985067   -2.31257803    7.68679716
 C                  0.55781102   -3.75016367    4.76894864
 H                  0.10139179   -3.59831721    5.72473321
 H                  0.05476616   -4.54266394    4.25534452
 H                  1.58748617   -4.00871495    4.90244144
 C                  0.21629374    1.21220774    1.62704023
 H                  0.05214772    2.03752841    2.28795010
 H                  1.13454842    1.35677984    1.09712774
 H                 -0.59207134    1.14805274    0.92894995

 1 2 1.0 4 1.0 5 1.0 20 1.0
 2 3 1.0 6 1.0 8 1.0
 3 7 1.0 14 1.0 22 1.0
 4
 5
 6
 7
 8 9 1.0 10 1.0 11 1.0
 9
 10
 11 12 1.0 13 1.0 17 1.0
 12
 13
 14 15 1.0 16 1.0 17 1.0
 15
 16
 17 18 1.0 19 1.0
 18
 19
 20 21 1.0 22 1.0 24 1.0
 21
 22 23 1.0
 23
 24 25 1.0 27 1.0 42 1.0
 25 26 1.0
 26
 27 28 1.5 29 1.5
 28 30 1.5 65 1.0
 29 31 1.5 32 1.0
 30 33 1.5 34 1.5
 31 34 1.5 69 1.0
 32
 33 35 1.5 36 1.0
 34 37 1.5
 35 38 1.5 39 1.0
 36
 37 38 1.5 40 1.0
 38 41 1.0
 39
 40
 41
 42 43 1.5 44 1.5
 43 45 1.5 57 1.0
 44 46 1.5 47 1.0
 45 48 1.5 49 1.5
 46 49 1.5 61 1.0
 47
 48 50 1.5 51 1.0
 49 52 1.5
 50 53 1.5 54 1.0
 51
 52 53 1.5 55 1.0
 53 56 1.0
 54
 55
 56
 57 58 1.0 59 1.0 60 1.0
 58
 59
 60
 61 62 1.0 63 1.0 64 1.0
 62
 63
 64
 65 66 1.0 67 1.0 68 1.0
 66
 67
 68
 69 70 1.0 71 1.0 72 1.0
 70
 71
 72

