%mem=1GB
#p am1 opt freq=noraman

isolated oxyallyl

0 1
 C                 -1.50150128    0.92407589   -0.27702663
 C                  0.01825260    0.96440517   -0.20793640
 C                  0.44241685    2.41858125   -0.06124698
 C                 -0.80491985    3.28356289   -0.17248176
 C                 -2.00946633    2.35896837   -0.27632068
 H                  0.38900888    0.35757088    0.65562439
 H                  0.94085542    2.58043355    0.92769263
 H                  1.18401563    2.69394808   -0.85223338
 H                 -0.89894471    3.95234040    0.71951129
 H                 -0.74229175    3.94390701   -1.07382326
 H                 -2.70625293    2.52586827    0.58322921
 O                 -2.03246028    0.20703800    0.84048811



