%mem=1GB
#p opt=modredundant pddg

TS Freeze

0 1
 C                  1.96445500   -0.77183400    0.09730600
 C                  2.69964100    0.43345600   -0.04006600
 C                  4.10093900    0.44161600   -0.09068500
 C                  4.73705000   -0.78157600   -0.00221600
 C                  4.01481400   -1.98405100    0.13690300
 C                  2.63405400   -1.99671500    0.18984800
 C                  0.56883400   -0.43293200    0.11317200
 H                  4.66934100    1.37788000   -0.19813600
 H                  5.83507900   -0.82456000   -0.04126700
 H                  4.57123800   -2.92994800    0.20347600
 H                  2.07189700   -2.93523100    0.29937500
 H                 -0.27878800   -1.13189700    0.20506200
 C                  0.46864500    0.94065000   -0.01317900
 H                 -0.46057100    1.54169100   -0.04373200
 C                  2.06241000    2.85421600   -0.46092000
 H                  3.10089200    3.12299800   -0.21100100
 H                  1.94114700    3.01568500   -1.54406000
 H                  1.40175800    3.57004500    0.04958100
 N                  1.76728300    1.48614000   -0.05557200
 C                 -4.18417000   -1.01094300   -0.25727000
 C                 -5.03526300    0.14574700   -0.22111300
 C                 -4.35885600    1.33394500    0.32171200
 C                 -2.95589600    0.84022600    0.70186500
 C                 -2.92530300   -0.56393000    0.26759600
 H                 -6.07656300    0.16555300   -0.56553200
 H                 -4.32386800    2.15593900   -0.42681900
 H                 -4.91655800    1.76105000    1.18381200
 H                 -2.12362600    1.42509400    0.22836600
 H                 -2.76078700    0.92333100    1.79442600
 H                 -1.99409300   -1.16140600    0.32350300
 O                 -4.47195000   -2.14580600   -0.66572100

B 7 24 F

