%nprocshared=4
%mem=3GB
#p opt freq=noraman b3lyp/6-31g scrf=(solvent=perfluorobenzene,pcm)
empiricaldispersion=gd3bj

Solvated Isolated

0 1
 C                  0.78415887   -0.05894607    0.38496790
 C                 -0.11866413    1.07163993    0.38505390
 C                 -1.55227213    0.71448593    0.38476890
 C                 -1.55225713   -0.83231207    0.38529390
 C                 -0.11863513   -1.18953707    0.38484790
 H                  0.23547387    2.09755093    0.38544790
 H                 -2.08063413    1.12767093    1.25871590
 H                 -2.08039413    1.12712693   -0.48962810
 H                 -2.08015713   -1.24507807    1.25975790
 H                 -2.08082413   -1.24530307   -0.48860910
 H                  0.23539087   -2.21549307    0.38414790
 O                  2.05635787   -0.05888407    0.38505490
 C                  0.25877833    1.48029309   -2.60919658
 C                  1.44829425    0.78238367   -2.49486781
 C                  0.55176338    2.86920245   -2.41584113
 H                 -0.15517770    3.68456307   -2.44144075
 C                  1.91225385    2.98160478   -2.18874049
 H                  2.52935749    3.84460468   -1.99958480
 N                  2.45068975    1.70522518   -2.23859139
 H                 -0.71095111    1.05011354   -2.80816165
 H                  1.66131349   -0.27102995   -2.57264247
 H                  3.42344274    1.48190340   -2.10869369

