%chk=C:\Users\Danny\Documents\Gaussian\project\gjf\ts\oac_methyl_pyrrole_freeze.chk
# hf/3-21g geom=connectivity

Title Card Required

0 1
 C                  1.64795680    0.58801312    5.49323677
 C                  1.22018769   -0.26156781    6.56880120
 C                  1.69786050    0.19959336    7.88052136
 C                  2.50634019    1.47001389    7.57602584
 C                  2.42097479    1.62518960    6.11655592
 H                  0.60408340   -1.16102026    6.44722515
 H                  0.85076749    0.38992928    8.57594098
 H                  2.30633160   -0.58155233    8.38743832
 H                  2.10776766    2.36526474    8.10240947
 H                  3.56337240    1.39380970    7.91406497
 H                  2.90362246    2.45209149    5.58114194
 O                  1.40233675    0.45458194    4.28465190
 C                  1.61745809    5.08033221    6.05087392
 C                  2.04535641    5.54153956    4.77987602
 C                  0.65403013    4.03360194    5.83824567
 H                  0.13730437    3.47956863    6.62567541
 C                  0.50883476    3.87069372    4.47358935
 H                 -0.13443751    3.16078932    3.93651173
 C                  1.63307025    4.77962316    2.39530572
 H                  2.06024081    5.73737104    2.05904488
 H                  2.36411691    3.99482269    2.14351436
 H                  0.73142441    4.58672708    1.79568018
 N                  1.31599227    4.82307275    3.81689245
 H                  1.98009198    5.47876835    6.86194543
 H                  2.70311620    6.25340789    4.68667067

 1 2 1.5 5 1.5 12 1.0
 2 3 1.0 6 1.0
 3 4 1.0 7 1.0 8 1.0
 4 5 1.0 9 1.0 10 1.0
 5 11 1.0
 6
 7
 8
 9
 10
 11
 12
 13 14 2.0 15 1.0 24 1.0
 14 23 1.0 25 1.0
 15 16 1.0 17 2.0
 16
 17 18 1.0 23 1.0
 18
 19 20 1.0 21 1.0 22 1.0 23 1.0
 20
 21
 22
 23
 24
 25

