%mem=3GB
%nprocshared=4
#p opt freq=noraman b3lyp/6-31g empiricaldispersion=gd3bj

Complex

0 1
 N                 -2.87611600    0.15735000    1.75137100
 H                 -2.88967900   -0.68024000    1.16422700
 H                 -3.44406700    0.05043300    2.58554100
 C                 -3.17831800    1.37948500    0.99366900
 H                 -4.25837300    1.56683400    0.88509200
 H                 -2.75338200    2.25151300    1.51209000
 O                 -3.34026500    0.34855900   -1.23702900
 H                 -2.96861300   -0.55409300   -1.01796100
 C                 -1.12157600    1.11825100   -0.55888600
 C                 -0.23136600    1.34000800    0.48164300
 C                 -0.61626300    0.67045300   -1.80749100
 C                  1.17582600    1.19521500    0.29999100
 H                 -0.59952900    1.63899600    1.45551100
 C                  0.73474200    0.45457700   -1.99686500
 H                 -1.32942100    0.46059600   -2.59475400
 C                  2.10207800    1.45815400    1.34437000
 C                  1.67384200    0.73581500   -0.96416900
 H                  1.10291400    0.10265000   -2.95629300
 C                  3.46060700    1.27160200    1.15354600
 H                  1.72387100    1.80920800    2.30001000
 C                  3.07291200    0.55306400   -1.13106700
 C                  3.95115300    0.81459900   -0.09432400
 H                  4.15647600    1.47990900    1.95943600
 H                  3.44354400    0.21168200   -2.09353100
 H                  5.01784400    0.67574400   -0.23417000
 C                 -0.81874200   -1.91253700    0.02040300
 C                 -0.20675800   -1.52483600    1.25741300
 C                  1.21221100   -1.93531000    1.35611600
 C                  1.53787900   -2.51308200   -0.04610600
 C                  0.25140500   -2.40936600   -0.77916600
 H                 -0.76731600   -1.01236300    2.03259800
 H                  1.86730400   -1.09154700    1.61380400
 H                  1.35923800   -2.68017500    2.15455500
 H                  2.33484700   -1.92844300   -0.52848800
 H                  1.90659900   -3.54940000   -0.00287900
 H                  0.11732300   -2.72734700   -1.80656500
 O                 -2.06673700   -1.79260700   -0.30291600
 C                 -2.62622400    1.32666700   -0.43943100
 H                 -2.87119500    2.29042300   -0.90613300
 C                 -1.51981450   -0.02837984    4.62713410
 C                 -2.56773422    0.92598272    4.57916306
 C                 -0.56829367    0.31030436    3.60295171
 H                  0.35055076   -0.23979087    3.38587065
 C                 -1.03380401    1.44031928    2.95775868
 H                 -0.57070037    1.99088965    2.12792551
 C                 -2.94089819    3.07364735    3.28110404
 H                 -3.99402451    3.03555303    3.60094905
 H                 -2.46785903    3.90441862    3.82863752
 H                 -2.92495888    3.33858359    2.21373361
 N                 -2.28145499    1.79494777    3.51218233
 H                 -1.54535157   -0.74853097    5.28197905
 H                 -3.32466898    0.88863544    5.19051128

