%nprocshared=5
%mem=4GB
#p opt=modredundant freq=noraman b3lyp/6-31g empiricaldispersion=gd3bj

TS Freeze

0 1
 C                 -1.28781600    0.92962600   -0.14877000
 C                 -0.66175700   -0.30518000   -0.61472500
 C                 -1.56062300   -1.48583600   -0.46936400
 C                 -2.87231800   -0.90418700    0.12729400
 C                 -2.59386100    0.55607700    0.23891300
 H                  0.19899400   -0.31877800   -1.27259600
 H                 -1.73652000   -1.96329800   -1.44412600
 H                 -1.11864600   -2.26355400    0.16675200
 H                 -3.72854900   -1.12370200   -0.52858500
 H                 -3.12603000   -1.35177600    1.10141500
 H                 -3.33072900    1.27816800    0.57095200
 O                 -0.72480300    2.09472700   -0.09171500
 C                  1.97288800   -1.27379700    0.56655600
 C                  1.15295200   -0.21988200    1.00071800
 C                  2.86445000   -0.74616500   -0.39794000
 H                  3.62297000   -1.28715100   -0.94235300
 C                  2.58665400    0.62182300   -0.51471800
 H                  3.01733300    1.36321500   -1.16809500
 N                  1.58569800    0.94317000    0.36143400
 H                  1.92682800   -2.29433100    0.91552800
 H                  0.45372400   -0.17364200    1.81817800
 H                  0.91574500    1.73996500    0.25883000

B 2 13 F

