%nprocshared=4
%mem=3GB
#p opt freq=noraman b3lyp/6-31g scrf=(solvent=perfluorobenzene,pcm)
empiricaldispersion=gd3bj

Solvated Isolated

0 1
 C                  0.78415887   -0.05894607    0.38496790
 C                 -0.11866413    1.07163993    0.38505390
 C                 -1.55227213    0.71448593    0.38476890
 C                 -1.55225713   -0.83231207    0.38529390
 C                 -0.11863513   -1.18953707    0.38484790
 H                  0.23547387    2.09755093    0.38544790
 H                 -2.08063413    1.12767093    1.25871590
 H                 -2.08039413    1.12712693   -0.48962810
 H                 -2.08015713   -1.24507807    1.25975790
 H                 -2.08082413   -1.24530307   -0.48860910
 H                  0.23539087   -2.21549307    0.38414790
 O                  2.05635787   -0.05888407    0.38505490
 C                 -0.04674960    1.24498998   -2.63012681
 C                  1.31730600    1.47747262   -2.61010397
 C                 -0.70216696    2.51834043   -2.66621675
 H                 -1.76728433    2.69227633   -2.68869465
 C                  0.27953911    3.49373540   -2.66728991
 H                  0.20906249    4.56887760   -2.68892065
 N                  1.50705272    2.85063901   -2.63293033
 H                 -0.52413922    0.27699338   -2.62020262
 H                  2.15130253    0.79573077   -2.58210103
 H                  2.40185940    3.31136455   -2.62604630

