%nprocshared=5
%mem=4GB
#p opt=modredundant freq=noraman b3lyp/6-31g empiricaldispersion=gd3bj

TS Freeze

0 1
 C                  0.42559500   -1.87009400   -0.60940900
 C                  0.86566700   -3.15870400   -0.23964200
 C                  1.76772500   -3.16753300    0.94525900
 C                  1.84047100   -1.67529000    1.35877600
 C                  0.99809100   -0.97436000    0.36208400
 H                  0.57077500   -4.05408900   -0.77469500
 H                  1.37600900   -3.79403900    1.76081700
 H                  2.75891400   -3.58161600    0.70411900
 H                  1.44955900   -1.50266800    2.37159200
 H                  2.86359700   -1.27749300    1.35966100
 H                  0.76132200    0.07537600    0.44058100
 O                 -0.32035500   -1.54859200   -1.63026400
 N                 -3.22163100   -1.21904700   -1.24896100
 H                 -3.98449000   -1.78808500   -1.59509400
 H                 -2.30804600   -1.53616200   -1.57257400
 C                 -3.46128100    0.22312600   -1.35456900
 H                 -3.71030000    0.55091500   -2.37952700
 H                 -4.31473000    0.48874600   -0.71494300
 O                 -1.14012200    0.89666100   -1.84563200
 H                 -0.82018100   -0.07510700   -1.81570300
 C                 -1.78807500    0.94631700    0.51534800
 C                 -1.96534800   -0.21887600    1.28206300
 C                 -1.05380200    2.01013100    1.06835800
 C                 -1.41201500   -0.31032700    2.56635900
 H                 -2.52683500   -1.03702700    0.84242300
 C                 -0.49012800    1.91441000    2.34373200
 H                 -0.91706800    2.91642900    0.48518400
 C                 -0.66750700    0.74815500    3.09923000
 H                 -1.56421800   -1.21347300    3.15005500
 H                  0.08006700    2.74444500    2.74819100
 H                 -0.23825600    0.67198400    4.09340800
 C                 -2.26539600    1.08503600   -0.92458900
 H                 -2.56263300    2.12807100   -1.07907900
 C                  3.49203100    0.67162600   -0.94595700
 C                  2.28039400    0.46792600   -1.61226200
 C                  3.38889100    1.90511200   -0.24301000
 H                  4.14700600    2.36269900    0.37397600
 C                  2.12412100    2.42680600   -0.50805300
 H                  1.65523000    3.33117600   -0.15735000
 N                  1.46730900    1.55792700   -1.34821500
 H                  1.95320200   -0.30927900   -2.28224400
 H                  4.34761000    0.01362400   -0.97507400
 H                  0.47092700    1.58809000   -1.61863500

B 5 34 F

