%mem=1GB
#p opt=modredundant pddg

TS Freeze

0 1
 C                 -1.19777800   -0.55260400    0.53112700
 C                 -2.25866300    0.22700700    0.00739500
 C                 -3.34096200   -0.35678600   -0.66444200
 C                 -3.32804400   -1.73316600   -0.79386600
 C                 -2.27387200   -2.51551000   -0.28238000
 C                 -1.20282000   -1.94265800    0.37813500
 C                 -0.25856000    0.34164500    1.15807000
 H                 -4.16622900    0.25092900   -1.06581700
 H                 -4.16033400   -2.23588500   -1.30747600
 H                 -2.31206500   -3.60659700   -0.41347400
 H                 -0.37582900   -2.55105700    0.77690100
 H                  0.65608500    0.03459900    1.67844200
 C                 -0.74729200    1.62540300    1.01214000
 H                 -0.31516000    2.56467600    1.38368700
 C                 -2.90283000    2.67018500    0.20087900
 H                 -3.64007000    2.50194100   -0.59967900
 H                 -3.46865500    2.79369400    1.13821200
 H                 -2.39880700    3.62631100   -0.00167300
 N                 -1.94080100    1.57592300    0.25644900
 C                  3.43175000   -0.64767000    0.32357100
 C                  4.18271300    0.46570100   -0.17586200
 C                  3.42834500    1.26567000   -1.15389800
 C                  2.06349600    0.56932700   -1.25409900
 C                  2.16368300   -0.58390800   -0.35060400
 H                  5.20885200    0.71149900    0.12224500
 H                  3.34355000    2.32633600   -0.83151800
 H                  3.95358800    1.30895900   -2.13316300
 H                  1.21650700    1.22363300   -0.93676100
 H                  1.80952400    0.25985000   -2.29124300
 H                  1.33880800   -1.30152300   -0.21356000
 O                  3.79260500   -1.49183000    1.16034300

B 7 24 F

