%chk=C:\Users\Danny\Documents\Gaussian\project\cat1_isolated.chk
# hf/3-21g geom=connectivity

Title Card Required

0 1
 C                 -4.25806456    0.48387096    0.00000000
 C                 -2.73620656    0.48387096    0.00000000
 C                 -3.49517356    2.82130396   -0.13318600
 C                 -4.72727056    1.92819096   -0.10359000
 H                 -4.65002656   -0.11857404   -0.85750800
 H                 -4.64817956    0.01345996    0.93750400
 H                 -2.34283956   -0.05686104    0.89683700
 H                 -3.53085056    3.56737396    0.69979800
 H                 -3.45605256    3.39888896   -1.09092200
 H                 -5.37964856    2.18999296    0.76707400
 H                 -5.33901656    2.07581296   -1.02879300
 N                 -2.26743356    1.93173596    0.00000000
 H                 -1.79167279    2.13391359    0.85602331
 C                 -2.20149067   -0.25168794   -1.24283226
 O                 -0.77193858   -0.21605386   -1.23951142
 H                 -0.43297750   -0.90023200   -1.82140974
 C                 -2.67855054   -1.71571711   -1.21768361
 C                 -3.43864654   -2.21988845   -2.27339983
 C                 -2.35067964   -2.53773592   -0.13956771
 C                 -3.87130220   -3.54559998   -2.25060158
 H                 -3.69761681   -1.57135018   -3.12285512
 C                 -2.78255538   -3.86415493   -0.11707638
 H                 -1.75146251   -2.14058348    0.69250067
 C                 -3.54287339   -4.36813978   -1.17227911
 H                 -4.47095240   -3.94288595   -3.08239483
 H                 -2.52354364   -4.51216323    0.73290737
 H                 -3.88406984   -5.41339911   -1.15455198
 C                 -2.72923279    0.43840753   -2.51438898
 C                 -1.85308761    1.14317305   -3.34031065
 C                 -4.08307562    0.35880152   -2.84045740
 C                 -2.33088466    1.76872845   -4.49166297
 H                 -0.78593756    1.20639351   -3.08255934
 C                 -4.56100390    0.98366214   -3.99264821
 H                 -4.77372216   -0.19677231   -2.18970852
 C                 -3.68521204    1.68867502   -4.81816772
 H                 -1.64046925    2.32477828   -5.14237923
 H                 -5.62842693    0.92038053   -4.24970410
 H                 -4.06169667    2.18193478   -5.72605013

 1 2 1.0 4 1.0 5 1.0 6 1.0
 2 7 1.0 12 1.0 14 1.0
 3 4 1.0 8 1.0 9 1.0 12 1.0
 4 10 1.0 11 1.0
 5
 6
 7
 8
 9
 10
 11
 12 13 1.0
 13
 14 15 1.0 17 1.0 28 1.0
 15 16 1.0
 16
 17 18 1.5 19 1.5
 18 20 1.5 21 1.0
 19 22 1.5 23 1.0
 20 24 1.5 25 1.0
 21
 22 24 1.5 26 1.0
 23
 24 27 1.0
 25
 26
 27
 28 29 1.5 30 1.5
 29 31 1.5 32 1.0
 30 33 1.5 34 1.0
 31 35 1.5 36 1.0
 32
 33 35 1.5 37 1.0
 34
 35 38 1.0
 36
 37
 38

