%chk=C:\Users\Danny\Documents\Gaussian\project\cat2_isolated.chk
# hf/3-21g geom=connectivity

Title Card Required

0 1
 C                 -2.73851959    0.48460011   -0.00142988
 C                 -3.49731250    2.82192823   -0.13741883
 C                 -4.72943418    1.92879347   -0.10955762
 H                 -2.34678967   -0.05558043    0.89645538
 H                 -3.53454819    3.56849728    0.69504967
 H                 -3.45644404    3.39893912   -1.09542787
 H                 -5.38342421    2.19109737    0.75974489
 H                 -5.33947820    2.07584001   -1.03597525
 N                 -2.26979243    1.93247995   -0.00143550
 H                 -1.79561676    2.13518704    0.85534177
 C                 -2.20149067   -0.25168794   -1.24283226
 O                 -0.77194824   -0.21600581   -1.23689761
 H                 -0.43189377   -0.90052243   -1.81775900
 C                 -2.67855054   -1.71571711   -1.21768361
 C                 -1.77339334   -2.74679576   -1.16734560
 C                 -4.06856957   -1.98530309   -1.24707651
 C                 -2.21834925   -4.09722582   -1.14425026
 H                 -0.69154405   -2.54749214   -1.14382227
 C                 -4.52506172   -3.27987086   -1.22570748
 H                 -4.77422476   -1.14249003   -1.28750929
 C                 -1.30349290   -5.18462833   -1.09219668
 C                 -3.61084473   -4.36791089   -1.17376955
 H                 -5.60321236   -3.49860960   -1.24835486
 C                 -1.76002198   -6.47912394   -1.07110365
 H                 -0.22543882   -4.96550207   -1.06952975
 C                 -4.05585460   -5.71799405   -1.15079360
 C                 -3.14980986   -6.74883737   -1.10071233
 H                 -1.05435880   -7.32198536   -1.03092760
 H                 -5.13762265   -5.91721331   -1.17421487
 H                 -3.49064358   -7.79449958   -1.08283297
 C                 -2.72690936    0.43762664   -2.51577397
 C                 -1.87509263    1.13108078   -3.33948282
 C                 -4.10556134    0.34617239   -2.82665709
 C                 -2.36457332    1.76606358   -4.51395547
 H                 -0.80241637    1.20747734   -3.10666877
 C                 -4.60426804    0.94985742   -3.95431103
 H                 -4.76818410   -0.21477578   -2.15124156
 C                 -1.50535162    2.49072922   -5.38499722
 C                 -3.74572287    1.67484493   -4.82586978
 H                 -5.67398836    0.88406553   -4.20358640
 C                 -2.00414601    3.09459302   -6.51244356
 H                 -0.43570525    2.55627516   -5.13541540
 C                 -4.23526505    2.30972538   -5.99999137
 C                 -3.38261985    3.00342816   -6.82329919
 H                 -1.34156833    3.65577859   -7.18775948
 H                 -5.30783790    2.23321481   -6.23278439
 H                 -3.75800747    3.49580988   -7.73244226
 C                 -4.26037500    0.48455107   -0.00423527
 H                 -4.09512973   -0.35613134    0.63673828
 H                 -5.15221557    0.32844529   -0.57445574

 1 4 1.0 9 1.0 11 1.0 48 1.0
 2 3 1.0 5 1.0 6 1.0 9 1.0
 3 7 1.0 8 1.0 48 1.0
 4
 5
 6
 7
 8
 9 10 1.0
 10
 11 12 1.0 14 1.0 31 1.0
 12 13 1.0
 13
 14 15 1.5 16 1.5
 15 17 1.5 18 1.0
 16 19 1.5 20 1.0
 17 21 1.5 22 1.5
 18
 19 22 1.5 23 1.0
 20
 21 24 1.5 25 1.0
 22 26 1.5
 23
 24 27 1.5 28 1.0
 25
 26 27 1.5 29 1.0
 27 30 1.0
 28
 29
 30
 31 32 1.5 33 1.5
 32 34 1.5 35 1.0
 33 36 1.5 37 1.0
 34 38 1.5 39 1.5
 35
 36 39 1.5 40 1.0
 37
 38 41 1.5 42 1.0
 39 43 1.5
 40
 41 44 1.5 45 1.0
 42
 43 44 1.5 46 1.0
 44 47 1.0
 45
 46
 47
 48 49 1.0 50 1.0
 49
 50

