%chk=C:\Users\Danny\Documents\Gaussian\project\gjf\oac_cat1_freeze.chk
# hf/3-21g geom=connectivity

Title Card Required

0 1
 C                  2.03677223    0.09579887   -0.13870603
 C                  1.17175709    0.24279545    1.13234669
 C                  2.18207159   -1.94554809    1.18017428
 C                  2.82850205   -1.20488429    0.00754351
 H                  1.41842307    0.09381751   -1.07098811
 H                  2.71394267    0.96697294   -0.26655467
 H                  1.77415390    1.15085442    1.44480577
 H                  2.91022095   -2.55174889    1.76018305
 H                  1.40008127   -2.65293530    0.82131784
 H                  3.90597326   -1.01063730    0.18791496
 H                  2.80050368   -1.81097300   -0.92000089
 N                  1.50209337   -0.92005219    2.00863882
 H                  1.73716340   -0.62667148    2.92575197
 C                 -0.34428528    0.60300990    1.29114812
 O                 -0.44403215    1.08961710    2.61534897
 H                  0.23823445    0.64926753    3.11539789
 C                 -0.80623892    1.73499681    0.36787960
 C                 -2.18145943    1.98813751    0.29688600
 C                  0.07024638    2.56993228   -0.32162131
 C                 -2.66912014    3.03619978   -0.47406097
 H                 -2.89528174    1.35192645    0.84805919
 C                 -0.42228247    3.61939486   -1.09515277
 H                  1.16284030    2.43910042   -0.27559367
 C                 -1.78919118    3.85374312   -1.17772929
 H                 -3.75218268    3.21921525   -0.52579188
 H                  0.27914047    4.26893318   -1.63880996
 H                 -2.17351844    4.68206255   -1.78990065
 C                 -1.21795566   -0.62337966    1.04260839
 C                 -1.77281692   -1.34714162    2.09918365
 C                 -1.46683296   -1.03368309   -0.27001047
 C                 -2.58690073   -2.44707563    1.83937887
 H                 -1.55933283   -1.08815029    3.14962562
 C                 -2.28051790   -2.13113517   -0.52494776
 H                 -0.98058040   -0.49193726   -1.10769875
 C                 -2.85012802   -2.83661303    0.53099832
 H                 -3.02026612   -3.01161739    2.67762052
 H                 -2.47216873   -2.44009119   -1.56234812
 H                 -3.49878425   -3.70123096    0.33124387
 C                  1.62389073    0.08466211    5.12824041
 C                  1.19612162   -0.76491882    6.20380484
 C                  1.67379443   -0.30375765    7.51552500
 C                  2.48227412    0.96666288    7.21102948
 C                  2.39690872    1.12183859    5.75155956
 H                  0.58001733   -1.66437127    6.08222879
 H                  0.82670142   -0.11342173    8.21094462
 H                  2.28226553   -1.08490334    8.02244196
 H                  2.08370159    1.86191373    7.73741311
 H                  3.53930633    0.89045869    7.54906861
 H                  2.87955639    1.94874048    5.21614558
 O                  1.37827068   -0.04876907    3.91965554

 1 2 1.0 4 1.0 5 1.0 6 1.0
 2 7 1.0 12 1.0 14 1.0
 3 4 1.0 8 1.0 9 1.0 12 1.0
 4 10 1.0 11 1.0
 5
 6
 7
 8
 9
 10
 11
 12 13 1.0
 13
 14 15 1.0 17 1.0 28 1.0
 15 16 1.0
 16
 17 18 1.5 19 1.5
 18 20 1.5 21 1.0
 19 22 1.5 23 1.0
 20 24 1.5 25 1.0
 21
 22 24 1.5 26 1.0
 23
 24 27 1.0
 25
 26
 27
 28 29 1.5 30 1.5
 29 31 1.5 32 1.0
 30 33 1.5 34 1.0
 31 35 1.5 36 1.0
 32
 33 35 1.5 37 1.0
 34
 35 38 1.0
 36
 37
 38
 39 40 1.5 43 1.5 50 1.0
 40 41 1.0 44 1.0
 41 42 1.0 45 1.0 46 1.0
 42 43 1.0 47 1.0 48 1.0
 43 49 1.0
 44
 45
 46
 47
 48
 49
 50

