%chk=C:\Users\Danny\Documents\Gaussian\project\gjf\oxyallyl_isolated.chk
# hf/3-21g geom=connectivity

Title Card Required

0 1
 C                  1.64795680    0.58801312    5.49323677
 C                  1.22018769   -0.26156781    6.56880120
 C                  1.69786050    0.19959336    7.88052136
 C                  2.50634019    1.47001389    7.57602584
 C                  2.42097479    1.62518960    6.11655592
 H                  0.60408340   -1.16102026    6.44722515
 H                  0.85076749    0.38992928    8.57594098
 H                  2.30633160   -0.58155233    8.38743832
 H                  2.10776766    2.36526474    8.10240947
 H                  3.56337240    1.39380970    7.91406497
 H                  2.90362246    2.45209149    5.58114194
 O                  1.40233675    0.45458194    4.28465190

 1 2 1.5 5 1.5 12 1.0
 2 3 1.0 6 1.0
 3 4 1.0 7 1.0 8 1.0
 4 5 1.0 9 1.0 10 1.0
 5 11 1.0
 6
 7
 8
 9
 10
 11
 12

